* stage3_level_shifter - LTSpice netlist
* Generated by TMR Schematic Drawer


* Models
.lib opamp.sub

.end

* Simulation Directives
.tran 0.1u 10m
.step temp 0 70 10